<?xml version="1.0" encoding="UTF-8"?>

<<<<<<< HEAD
<!-- generated on 2021-06-07 14:57:01 by Eclipse SUMO duarouter Version 1.9.2
=======
<!-- generated on 2021-05-17 18:56:15 by Eclipse SUMO duarouter Version 1.9.1
>>>>>>> f1cbdea80b74be8e93abea99fff8f31e15544f09
<configuration xmlns:xsi="http://www.w3.org/2001/XMLSchema-instance" xsi:noNamespaceSchemaLocation="http://sumo.dlr.de/xsd/duarouterConfiguration.xsd">

    <input>
        <net-file value="dataset_public/t_junction/4lane_t/map.net.xml"/>
<<<<<<< HEAD
        <route-files value="/tmp/tmp5luoq5wn/trips.trips.xml"/>
=======
        <route-files value="/tmp/tmp4sb_vprr/trips.trips.xml"/>
>>>>>>> f1cbdea80b74be8e93abea99fff8f31e15544f09
    </input>

    <output>
        <output-file value="dataset_public/t_junction/4lane_t/traffic/basic.rou.xml"/>
        <alternatives-output value="dataset_public/t_junction/4lane_t/traffic/basic.rou.alt.xml"/>
    </output>

    <processing>
        <unsorted-input value="true"/>
        <repair value="true"/>
    </processing>

    <report>
        <error-log value="/tmp/smarts/_duarouter_routing/traffic/basic.log"/>
        <no-step-log value="true"/>
    </report>

    <random_number>
        <seed value="42"/>
    </random_number>

</configuration>
-->

<routes xmlns:xsi="http://www.w3.org/2001/XMLSchema-instance" xsi:noNamespaceSchemaLocation="http://sumo.dlr.de/xsd/routes_file.xsd">
<<<<<<< HEAD
    <vType id="actor-car-5593658941861698374" minGap="2.50" speedFactor="normc(1.00,0.10,0.20,2.00)" vClass="passenger" accel="2.6" decel="4.5" sigma="0.5"/>
    <vehicle id="-flow-route-edge-east-EW_0_10-edge-west-EW_0_-10-956821211987512037-3385449679720864173-1-0.0" type="actor-car-5593658941861698374" depart="0.00" departLane="0" departPos="10.00" departSpeed="max" arrivalLane="0" arrivalPos="-10.00">
        <route edges="edge-east-EW edge-west-EW"/>
    </vehicle>
    <vehicle id="-flow-route-edge-west-WE_0_10-edge-east-WE_0_-10-5211447971676164136-3385449679720864173-0-0.0" type="actor-car-5593658941861698374" depart="0.00" departLane="0" departPos="10.00" departSpeed="max" arrivalLane="0" arrivalPos="-10.00">
        <route edges="edge-west-WE edge-east-WE"/>
    </vehicle>
    <vehicle id="-flow-route-edge-east-EW_0_10-edge-west-EW_0_-10-956821211987512037-3385449679720864173-1-0.1" type="actor-car-5593658941861698374" depart="1.50" departLane="0" departPos="10.00" departSpeed="max" arrivalLane="0" arrivalPos="-10.00">
        <route edges="edge-east-EW edge-west-EW"/>
    </vehicle>
    <vehicle id="-flow-route-edge-west-WE_0_10-edge-east-WE_0_-10-5211447971676164136-3385449679720864173-0-0.1" type="actor-car-5593658941861698374" depart="1.50" departLane="0" departPos="10.00" departSpeed="max" arrivalLane="0" arrivalPos="-10.00">
        <route edges="edge-west-WE edge-east-WE"/>
    </vehicle>
    <vehicle id="-flow-route-edge-east-EW_0_10-edge-west-EW_0_-10-956821211987512037-3385449679720864173-1-0.2" type="actor-car-5593658941861698374" depart="3.00" departLane="0" departPos="10.00" departSpeed="max" arrivalLane="0" arrivalPos="-10.00">
        <route edges="edge-east-EW edge-west-EW"/>
    </vehicle>
    <vehicle id="-flow-route-edge-west-WE_0_10-edge-east-WE_0_-10-5211447971676164136-3385449679720864173-0-0.2" type="actor-car-5593658941861698374" depart="3.00" departLane="0" departPos="10.00" departSpeed="max" arrivalLane="0" arrivalPos="-10.00">
        <route edges="edge-west-WE edge-east-WE"/>
    </vehicle>
    <vehicle id="-flow-route-edge-east-EW_0_10-edge-west-EW_0_-10-956821211987512037-3385449679720864173-1-0.3" type="actor-car-5593658941861698374" depart="4.50" departLane="0" departPos="10.00" departSpeed="max" arrivalLane="0" arrivalPos="-10.00">
        <route edges="edge-east-EW edge-west-EW"/>
    </vehicle>
    <vehicle id="-flow-route-edge-west-WE_0_10-edge-east-WE_0_-10-5211447971676164136-3385449679720864173-0-0.3" type="actor-car-5593658941861698374" depart="4.50" departLane="0" departPos="10.00" departSpeed="max" arrivalLane="0" arrivalPos="-10.00">
        <route edges="edge-west-WE edge-east-WE"/>
    </vehicle>
    <vehicle id="-flow-route-edge-east-EW_0_10-edge-west-EW_0_-10-956821211987512037-3385449679720864173-1-0.4" type="actor-car-5593658941861698374" depart="6.00" departLane="0" departPos="10.00" departSpeed="max" arrivalLane="0" arrivalPos="-10.00">
        <route edges="edge-east-EW edge-west-EW"/>
    </vehicle>
    <vehicle id="-flow-route-edge-west-WE_0_10-edge-east-WE_0_-10-5211447971676164136-3385449679720864173-0-0.4" type="actor-car-5593658941861698374" depart="6.00" departLane="0" departPos="10.00" departSpeed="max" arrivalLane="0" arrivalPos="-10.00">
        <route edges="edge-west-WE edge-east-WE"/>
    </vehicle>
    <vehicle id="-flow-route-edge-east-EW_0_10-edge-west-EW_0_-10-956821211987512037-3385449679720864173-1-0.5" type="actor-car-5593658941861698374" depart="7.50" departLane="0" departPos="10.00" departSpeed="max" arrivalLane="0" arrivalPos="-10.00">
        <route edges="edge-east-EW edge-west-EW"/>
    </vehicle>
    <vehicle id="-flow-route-edge-west-WE_0_10-edge-east-WE_0_-10-5211447971676164136-3385449679720864173-0-0.5" type="actor-car-5593658941861698374" depart="7.50" departLane="0" departPos="10.00" departSpeed="max" arrivalLane="0" arrivalPos="-10.00">
        <route edges="edge-west-WE edge-east-WE"/>
    </vehicle>
    <vehicle id="-flow-route-edge-east-EW_0_10-edge-west-EW_0_-10-956821211987512037-3385449679720864173-1-0.6" type="actor-car-5593658941861698374" depart="9.00" departLane="0" departPos="10.00" departSpeed="max" arrivalLane="0" arrivalPos="-10.00">
        <route edges="edge-east-EW edge-west-EW"/>
    </vehicle>
    <vehicle id="-flow-route-edge-west-WE_0_10-edge-east-WE_0_-10-5211447971676164136-3385449679720864173-0-0.6" type="actor-car-5593658941861698374" depart="9.00" departLane="0" departPos="10.00" departSpeed="max" arrivalLane="0" arrivalPos="-10.00">
        <route edges="edge-west-WE edge-east-WE"/>
    </vehicle>
    <vehicle id="-flow-route-edge-east-EW_0_10-edge-west-EW_0_-10-956821211987512037-3385449679720864173-1-0.7" type="actor-car-5593658941861698374" depart="10.50" departLane="0" departPos="10.00" departSpeed="max" arrivalLane="0" arrivalPos="-10.00">
        <route edges="edge-east-EW edge-west-EW"/>
    </vehicle>
    <vehicle id="-flow-route-edge-west-WE_0_10-edge-east-WE_0_-10-5211447971676164136-3385449679720864173-0-0.7" type="actor-car-5593658941861698374" depart="10.50" departLane="0" departPos="10.00" departSpeed="max" arrivalLane="0" arrivalPos="-10.00">
        <route edges="edge-west-WE edge-east-WE"/>
    </vehicle>
    <vehicle id="-flow-route-edge-east-EW_0_10-edge-west-EW_0_-10-956821211987512037-3385449679720864173-1-0.8" type="actor-car-5593658941861698374" depart="12.00" departLane="0" departPos="10.00" departSpeed="max" arrivalLane="0" arrivalPos="-10.00">
        <route edges="edge-east-EW edge-west-EW"/>
    </vehicle>
    <vehicle id="-flow-route-edge-west-WE_0_10-edge-east-WE_0_-10-5211447971676164136-3385449679720864173-0-0.8" type="actor-car-5593658941861698374" depart="12.00" departLane="0" departPos="10.00" departSpeed="max" arrivalLane="0" arrivalPos="-10.00">
        <route edges="edge-west-WE edge-east-WE"/>
    </vehicle>
    <vehicle id="-flow-route-edge-east-EW_0_10-edge-west-EW_0_-10-956821211987512037-3385449679720864173-1-0.9" type="actor-car-5593658941861698374" depart="13.50" departLane="0" departPos="10.00" departSpeed="max" arrivalLane="0" arrivalPos="-10.00">
        <route edges="edge-east-EW edge-west-EW"/>
    </vehicle>
    <vehicle id="-flow-route-edge-west-WE_0_10-edge-east-WE_0_-10-5211447971676164136-3385449679720864173-0-0.9" type="actor-car-5593658941861698374" depart="13.50" departLane="0" departPos="10.00" departSpeed="max" arrivalLane="0" arrivalPos="-10.00">
        <route edges="edge-west-WE edge-east-WE"/>
    </vehicle>
    <vehicle id="-flow-route-edge-east-EW_0_10-edge-west-EW_0_-10-956821211987512037-3385449679720864173-1-0.10" type="actor-car-5593658941861698374" depart="15.00" departLane="0" departPos="10.00" departSpeed="max" arrivalLane="0" arrivalPos="-10.00">
        <route edges="edge-east-EW edge-west-EW"/>
    </vehicle>
    <vehicle id="-flow-route-edge-west-WE_0_10-edge-east-WE_0_-10-5211447971676164136-3385449679720864173-0-0.10" type="actor-car-5593658941861698374" depart="15.00" departLane="0" departPos="10.00" departSpeed="max" arrivalLane="0" arrivalPos="-10.00">
        <route edges="edge-west-WE edge-east-WE"/>
    </vehicle>
    <vehicle id="-flow-route-edge-east-EW_0_10-edge-west-EW_0_-10-956821211987512037-3385449679720864173-1-0.11" type="actor-car-5593658941861698374" depart="16.50" departLane="0" departPos="10.00" departSpeed="max" arrivalLane="0" arrivalPos="-10.00">
        <route edges="edge-east-EW edge-west-EW"/>
    </vehicle>
    <vehicle id="-flow-route-edge-west-WE_0_10-edge-east-WE_0_-10-5211447971676164136-3385449679720864173-0-0.11" type="actor-car-5593658941861698374" depart="16.50" departLane="0" departPos="10.00" departSpeed="max" arrivalLane="0" arrivalPos="-10.00">
        <route edges="edge-west-WE edge-east-WE"/>
    </vehicle>
    <vehicle id="-flow-route-edge-east-EW_0_10-edge-west-EW_0_-10-956821211987512037-3385449679720864173-1-0.12" type="actor-car-5593658941861698374" depart="18.00" departLane="0" departPos="10.00" departSpeed="max" arrivalLane="0" arrivalPos="-10.00">
        <route edges="edge-east-EW edge-west-EW"/>
    </vehicle>
    <vehicle id="-flow-route-edge-west-WE_0_10-edge-east-WE_0_-10-5211447971676164136-3385449679720864173-0-0.12" type="actor-car-5593658941861698374" depart="18.00" departLane="0" departPos="10.00" departSpeed="max" arrivalLane="0" arrivalPos="-10.00">
        <route edges="edge-west-WE edge-east-WE"/>
    </vehicle>
    <vehicle id="-flow-route-edge-east-EW_0_10-edge-west-EW_0_-10-956821211987512037-3385449679720864173-1-0.13" type="actor-car-5593658941861698374" depart="19.50" departLane="0" departPos="10.00" departSpeed="max" arrivalLane="0" arrivalPos="-10.00">
        <route edges="edge-east-EW edge-west-EW"/>
    </vehicle>
    <vehicle id="-flow-route-edge-west-WE_0_10-edge-east-WE_0_-10-5211447971676164136-3385449679720864173-0-0.13" type="actor-car-5593658941861698374" depart="19.50" departLane="0" departPos="10.00" departSpeed="max" arrivalLane="0" arrivalPos="-10.00">
        <route edges="edge-west-WE edge-east-WE"/>
    </vehicle>
    <vehicle id="-flow-route-edge-east-EW_0_10-edge-west-EW_0_-10-956821211987512037-3385449679720864173-1-0.14" type="actor-car-5593658941861698374" depart="21.00" departLane="0" departPos="10.00" departSpeed="max" arrivalLane="0" arrivalPos="-10.00">
        <route edges="edge-east-EW edge-west-EW"/>
    </vehicle>
    <vehicle id="-flow-route-edge-west-WE_0_10-edge-east-WE_0_-10-5211447971676164136-3385449679720864173-0-0.14" type="actor-car-5593658941861698374" depart="21.00" departLane="0" departPos="10.00" departSpeed="max" arrivalLane="0" arrivalPos="-10.00">
        <route edges="edge-west-WE edge-east-WE"/>
    </vehicle>
    <vehicle id="-flow-route-edge-east-EW_0_10-edge-west-EW_0_-10-956821211987512037-3385449679720864173-1-0.15" type="actor-car-5593658941861698374" depart="22.50" departLane="0" departPos="10.00" departSpeed="max" arrivalLane="0" arrivalPos="-10.00">
        <route edges="edge-east-EW edge-west-EW"/>
    </vehicle>
    <vehicle id="-flow-route-edge-west-WE_0_10-edge-east-WE_0_-10-5211447971676164136-3385449679720864173-0-0.15" type="actor-car-5593658941861698374" depart="22.50" departLane="0" departPos="10.00" departSpeed="max" arrivalLane="0" arrivalPos="-10.00">
        <route edges="edge-west-WE edge-east-WE"/>
    </vehicle>
    <vehicle id="-flow-route-edge-east-EW_0_10-edge-west-EW_0_-10-956821211987512037-3385449679720864173-1-0.16" type="actor-car-5593658941861698374" depart="24.00" departLane="0" departPos="10.00" departSpeed="max" arrivalLane="0" arrivalPos="-10.00">
        <route edges="edge-east-EW edge-west-EW"/>
    </vehicle>
    <vehicle id="-flow-route-edge-west-WE_0_10-edge-east-WE_0_-10-5211447971676164136-3385449679720864173-0-0.16" type="actor-car-5593658941861698374" depart="24.00" departLane="0" departPos="10.00" departSpeed="max" arrivalLane="0" arrivalPos="-10.00">
        <route edges="edge-west-WE edge-east-WE"/>
    </vehicle>
    <vehicle id="-flow-route-edge-east-EW_0_10-edge-west-EW_0_-10-956821211987512037-3385449679720864173-1-0.17" type="actor-car-5593658941861698374" depart="25.50" departLane="0" departPos="10.00" departSpeed="max" arrivalLane="0" arrivalPos="-10.00">
        <route edges="edge-east-EW edge-west-EW"/>
    </vehicle>
    <vehicle id="-flow-route-edge-west-WE_0_10-edge-east-WE_0_-10-5211447971676164136-3385449679720864173-0-0.17" type="actor-car-5593658941861698374" depart="25.50" departLane="0" departPos="10.00" departSpeed="max" arrivalLane="0" arrivalPos="-10.00">
        <route edges="edge-west-WE edge-east-WE"/>
    </vehicle>
    <vehicle id="-flow-route-edge-east-EW_0_10-edge-west-EW_0_-10-956821211987512037-3385449679720864173-1-0.18" type="actor-car-5593658941861698374" depart="27.00" departLane="0" departPos="10.00" departSpeed="max" arrivalLane="0" arrivalPos="-10.00">
        <route edges="edge-east-EW edge-west-EW"/>
    </vehicle>
    <vehicle id="-flow-route-edge-west-WE_0_10-edge-east-WE_0_-10-5211447971676164136-3385449679720864173-0-0.18" type="actor-car-5593658941861698374" depart="27.00" departLane="0" departPos="10.00" departSpeed="max" arrivalLane="0" arrivalPos="-10.00">
        <route edges="edge-west-WE edge-east-WE"/>
    </vehicle>
    <vehicle id="-flow-route-edge-east-EW_0_10-edge-west-EW_0_-10-956821211987512037-3385449679720864173-1-0.19" type="actor-car-5593658941861698374" depart="28.50" departLane="0" departPos="10.00" departSpeed="max" arrivalLane="0" arrivalPos="-10.00">
        <route edges="edge-east-EW edge-west-EW"/>
    </vehicle>
    <vehicle id="-flow-route-edge-west-WE_0_10-edge-east-WE_0_-10-5211447971676164136-3385449679720864173-0-0.19" type="actor-car-5593658941861698374" depart="28.50" departLane="0" departPos="10.00" departSpeed="max" arrivalLane="0" arrivalPos="-10.00">
        <route edges="edge-west-WE edge-east-WE"/>
    </vehicle>
    <vehicle id="-flow-route-edge-east-EW_0_10-edge-west-EW_0_-10-956821211987512037-3385449679720864173-1-0.20" type="actor-car-5593658941861698374" depart="30.00" departLane="0" departPos="10.00" departSpeed="max" arrivalLane="0" arrivalPos="-10.00">
        <route edges="edge-east-EW edge-west-EW"/>
    </vehicle>
    <vehicle id="-flow-route-edge-west-WE_0_10-edge-east-WE_0_-10-5211447971676164136-3385449679720864173-0-0.20" type="actor-car-5593658941861698374" depart="30.00" departLane="0" departPos="10.00" departSpeed="max" arrivalLane="0" arrivalPos="-10.00">
        <route edges="edge-west-WE edge-east-WE"/>
    </vehicle>
    <vehicle id="-flow-route-edge-east-EW_0_10-edge-west-EW_0_-10-956821211987512037-3385449679720864173-1-0.21" type="actor-car-5593658941861698374" depart="31.50" departLane="0" departPos="10.00" departSpeed="max" arrivalLane="0" arrivalPos="-10.00">
        <route edges="edge-east-EW edge-west-EW"/>
    </vehicle>
    <vehicle id="-flow-route-edge-west-WE_0_10-edge-east-WE_0_-10-5211447971676164136-3385449679720864173-0-0.21" type="actor-car-5593658941861698374" depart="31.50" departLane="0" departPos="10.00" departSpeed="max" arrivalLane="0" arrivalPos="-10.00">
        <route edges="edge-west-WE edge-east-WE"/>
    </vehicle>
    <vehicle id="-flow-route-edge-east-EW_0_10-edge-west-EW_0_-10-956821211987512037-3385449679720864173-1-0.22" type="actor-car-5593658941861698374" depart="33.00" departLane="0" departPos="10.00" departSpeed="max" arrivalLane="0" arrivalPos="-10.00">
        <route edges="edge-east-EW edge-west-EW"/>
    </vehicle>
    <vehicle id="-flow-route-edge-west-WE_0_10-edge-east-WE_0_-10-5211447971676164136-3385449679720864173-0-0.22" type="actor-car-5593658941861698374" depart="33.00" departLane="0" departPos="10.00" departSpeed="max" arrivalLane="0" arrivalPos="-10.00">
        <route edges="edge-west-WE edge-east-WE"/>
    </vehicle>
    <vehicle id="-flow-route-edge-east-EW_0_10-edge-west-EW_0_-10-956821211987512037-3385449679720864173-1-0.23" type="actor-car-5593658941861698374" depart="34.50" departLane="0" departPos="10.00" departSpeed="max" arrivalLane="0" arrivalPos="-10.00">
        <route edges="edge-east-EW edge-west-EW"/>
    </vehicle>
    <vehicle id="-flow-route-edge-west-WE_0_10-edge-east-WE_0_-10-5211447971676164136-3385449679720864173-0-0.23" type="actor-car-5593658941861698374" depart="34.50" departLane="0" departPos="10.00" departSpeed="max" arrivalLane="0" arrivalPos="-10.00">
        <route edges="edge-west-WE edge-east-WE"/>
    </vehicle>
    <vehicle id="-flow-route-edge-east-EW_0_10-edge-west-EW_0_-10-956821211987512037-3385449679720864173-1-0.24" type="actor-car-5593658941861698374" depart="36.00" departLane="0" departPos="10.00" departSpeed="max" arrivalLane="0" arrivalPos="-10.00">
        <route edges="edge-east-EW edge-west-EW"/>
    </vehicle>
    <vehicle id="-flow-route-edge-west-WE_0_10-edge-east-WE_0_-10-5211447971676164136-3385449679720864173-0-0.24" type="actor-car-5593658941861698374" depart="36.00" departLane="0" departPos="10.00" departSpeed="max" arrivalLane="0" arrivalPos="-10.00">
        <route edges="edge-west-WE edge-east-WE"/>
    </vehicle>
    <vehicle id="-flow-route-edge-east-EW_0_10-edge-west-EW_0_-10-956821211987512037-3385449679720864173-1-0.25" type="actor-car-5593658941861698374" depart="37.50" departLane="0" departPos="10.00" departSpeed="max" arrivalLane="0" arrivalPos="-10.00">
        <route edges="edge-east-EW edge-west-EW"/>
    </vehicle>
    <vehicle id="-flow-route-edge-west-WE_0_10-edge-east-WE_0_-10-5211447971676164136-3385449679720864173-0-0.25" type="actor-car-5593658941861698374" depart="37.50" departLane="0" departPos="10.00" departSpeed="max" arrivalLane="0" arrivalPos="-10.00">
        <route edges="edge-west-WE edge-east-WE"/>
    </vehicle>
    <vehicle id="-flow-route-edge-east-EW_0_10-edge-west-EW_0_-10-956821211987512037-3385449679720864173-1-0.26" type="actor-car-5593658941861698374" depart="39.00" departLane="0" departPos="10.00" departSpeed="max" arrivalLane="0" arrivalPos="-10.00">
        <route edges="edge-east-EW edge-west-EW"/>
    </vehicle>
    <vehicle id="-flow-route-edge-west-WE_0_10-edge-east-WE_0_-10-5211447971676164136-3385449679720864173-0-0.26" type="actor-car-5593658941861698374" depart="39.00" departLane="0" departPos="10.00" departSpeed="max" arrivalLane="0" arrivalPos="-10.00">
        <route edges="edge-west-WE edge-east-WE"/>
    </vehicle>
    <vehicle id="-flow-route-edge-east-EW_0_10-edge-west-EW_0_-10-956821211987512037-3385449679720864173-1-0.27" type="actor-car-5593658941861698374" depart="40.50" departLane="0" departPos="10.00" departSpeed="max" arrivalLane="0" arrivalPos="-10.00">
        <route edges="edge-east-EW edge-west-EW"/>
    </vehicle>
    <vehicle id="-flow-route-edge-west-WE_0_10-edge-east-WE_0_-10-5211447971676164136-3385449679720864173-0-0.27" type="actor-car-5593658941861698374" depart="40.50" departLane="0" departPos="10.00" departSpeed="max" arrivalLane="0" arrivalPos="-10.00">
        <route edges="edge-west-WE edge-east-WE"/>
    </vehicle>
    <vehicle id="-flow-route-edge-east-EW_0_10-edge-west-EW_0_-10-956821211987512037-3385449679720864173-1-0.28" type="actor-car-5593658941861698374" depart="42.00" departLane="0" departPos="10.00" departSpeed="max" arrivalLane="0" arrivalPos="-10.00">
        <route edges="edge-east-EW edge-west-EW"/>
    </vehicle>
    <vehicle id="-flow-route-edge-west-WE_0_10-edge-east-WE_0_-10-5211447971676164136-3385449679720864173-0-0.28" type="actor-car-5593658941861698374" depart="42.00" departLane="0" departPos="10.00" departSpeed="max" arrivalLane="0" arrivalPos="-10.00">
        <route edges="edge-west-WE edge-east-WE"/>
    </vehicle>
    <vehicle id="-flow-route-edge-east-EW_0_10-edge-west-EW_0_-10-956821211987512037-3385449679720864173-1-0.29" type="actor-car-5593658941861698374" depart="43.50" departLane="0" departPos="10.00" departSpeed="max" arrivalLane="0" arrivalPos="-10.00">
        <route edges="edge-east-EW edge-west-EW"/>
    </vehicle>
    <vehicle id="-flow-route-edge-west-WE_0_10-edge-east-WE_0_-10-5211447971676164136-3385449679720864173-0-0.29" type="actor-car-5593658941861698374" depart="43.50" departLane="0" departPos="10.00" departSpeed="max" arrivalLane="0" arrivalPos="-10.00">
        <route edges="edge-west-WE edge-east-WE"/>
    </vehicle>
    <vehicle id="-flow-route-edge-east-EW_0_10-edge-west-EW_0_-10-956821211987512037-3385449679720864173-1-0.30" type="actor-car-5593658941861698374" depart="45.00" departLane="0" departPos="10.00" departSpeed="max" arrivalLane="0" arrivalPos="-10.00">
        <route edges="edge-east-EW edge-west-EW"/>
    </vehicle>
    <vehicle id="-flow-route-edge-west-WE_0_10-edge-east-WE_0_-10-5211447971676164136-3385449679720864173-0-0.30" type="actor-car-5593658941861698374" depart="45.00" departLane="0" departPos="10.00" departSpeed="max" arrivalLane="0" arrivalPos="-10.00">
        <route edges="edge-west-WE edge-east-WE"/>
    </vehicle>
    <vehicle id="-flow-route-edge-east-EW_0_10-edge-west-EW_0_-10-956821211987512037-3385449679720864173-1-0.31" type="actor-car-5593658941861698374" depart="46.50" departLane="0" departPos="10.00" departSpeed="max" arrivalLane="0" arrivalPos="-10.00">
        <route edges="edge-east-EW edge-west-EW"/>
    </vehicle>
    <vehicle id="-flow-route-edge-west-WE_0_10-edge-east-WE_0_-10-5211447971676164136-3385449679720864173-0-0.31" type="actor-car-5593658941861698374" depart="46.50" departLane="0" departPos="10.00" departSpeed="max" arrivalLane="0" arrivalPos="-10.00">
        <route edges="edge-west-WE edge-east-WE"/>
    </vehicle>
    <vehicle id="-flow-route-edge-east-EW_0_10-edge-west-EW_0_-10-956821211987512037-3385449679720864173-1-0.32" type="actor-car-5593658941861698374" depart="48.00" departLane="0" departPos="10.00" departSpeed="max" arrivalLane="0" arrivalPos="-10.00">
        <route edges="edge-east-EW edge-west-EW"/>
    </vehicle>
    <vehicle id="-flow-route-edge-west-WE_0_10-edge-east-WE_0_-10-5211447971676164136-3385449679720864173-0-0.32" type="actor-car-5593658941861698374" depart="48.00" departLane="0" departPos="10.00" departSpeed="max" arrivalLane="0" arrivalPos="-10.00">
        <route edges="edge-west-WE edge-east-WE"/>
    </vehicle>
    <vehicle id="-flow-route-edge-east-EW_0_10-edge-west-EW_0_-10-956821211987512037-3385449679720864173-1-0.33" type="actor-car-5593658941861698374" depart="49.50" departLane="0" departPos="10.00" departSpeed="max" arrivalLane="0" arrivalPos="-10.00">
        <route edges="edge-east-EW edge-west-EW"/>
    </vehicle>
    <vehicle id="-flow-route-edge-west-WE_0_10-edge-east-WE_0_-10-5211447971676164136-3385449679720864173-0-0.33" type="actor-car-5593658941861698374" depart="49.50" departLane="0" departPos="10.00" departSpeed="max" arrivalLane="0" arrivalPos="-10.00">
        <route edges="edge-west-WE edge-east-WE"/>
    </vehicle>
    <vehicle id="-flow-route-edge-east-EW_0_10-edge-west-EW_0_-10-956821211987512037-3385449679720864173-1-0.34" type="actor-car-5593658941861698374" depart="51.00" departLane="0" departPos="10.00" departSpeed="max" arrivalLane="0" arrivalPos="-10.00">
        <route edges="edge-east-EW edge-west-EW"/>
    </vehicle>
    <vehicle id="-flow-route-edge-west-WE_0_10-edge-east-WE_0_-10-5211447971676164136-3385449679720864173-0-0.34" type="actor-car-5593658941861698374" depart="51.00" departLane="0" departPos="10.00" departSpeed="max" arrivalLane="0" arrivalPos="-10.00">
        <route edges="edge-west-WE edge-east-WE"/>
    </vehicle>
    <vehicle id="-flow-route-edge-east-EW_0_10-edge-west-EW_0_-10-956821211987512037-3385449679720864173-1-0.35" type="actor-car-5593658941861698374" depart="52.50" departLane="0" departPos="10.00" departSpeed="max" arrivalLane="0" arrivalPos="-10.00">
        <route edges="edge-east-EW edge-west-EW"/>
    </vehicle>
    <vehicle id="-flow-route-edge-west-WE_0_10-edge-east-WE_0_-10-5211447971676164136-3385449679720864173-0-0.35" type="actor-car-5593658941861698374" depart="52.50" departLane="0" departPos="10.00" departSpeed="max" arrivalLane="0" arrivalPos="-10.00">
        <route edges="edge-west-WE edge-east-WE"/>
    </vehicle>
    <vehicle id="-flow-route-edge-east-EW_0_10-edge-west-EW_0_-10-956821211987512037-3385449679720864173-1-0.36" type="actor-car-5593658941861698374" depart="54.00" departLane="0" departPos="10.00" departSpeed="max" arrivalLane="0" arrivalPos="-10.00">
        <route edges="edge-east-EW edge-west-EW"/>
    </vehicle>
    <vehicle id="-flow-route-edge-west-WE_0_10-edge-east-WE_0_-10-5211447971676164136-3385449679720864173-0-0.36" type="actor-car-5593658941861698374" depart="54.00" departLane="0" departPos="10.00" departSpeed="max" arrivalLane="0" arrivalPos="-10.00">
        <route edges="edge-west-WE edge-east-WE"/>
    </vehicle>
    <vehicle id="-flow-route-edge-east-EW_0_10-edge-west-EW_0_-10-956821211987512037-3385449679720864173-1-0.37" type="actor-car-5593658941861698374" depart="55.50" departLane="0" departPos="10.00" departSpeed="max" arrivalLane="0" arrivalPos="-10.00">
        <route edges="edge-east-EW edge-west-EW"/>
    </vehicle>
    <vehicle id="-flow-route-edge-west-WE_0_10-edge-east-WE_0_-10-5211447971676164136-3385449679720864173-0-0.37" type="actor-car-5593658941861698374" depart="55.50" departLane="0" departPos="10.00" departSpeed="max" arrivalLane="0" arrivalPos="-10.00">
        <route edges="edge-west-WE edge-east-WE"/>
    </vehicle>
    <vehicle id="-flow-route-edge-east-EW_0_10-edge-west-EW_0_-10-956821211987512037-3385449679720864173-1-0.38" type="actor-car-5593658941861698374" depart="57.00" departLane="0" departPos="10.00" departSpeed="max" arrivalLane="0" arrivalPos="-10.00">
        <route edges="edge-east-EW edge-west-EW"/>
    </vehicle>
    <vehicle id="-flow-route-edge-west-WE_0_10-edge-east-WE_0_-10-5211447971676164136-3385449679720864173-0-0.38" type="actor-car-5593658941861698374" depart="57.00" departLane="0" departPos="10.00" departSpeed="max" arrivalLane="0" arrivalPos="-10.00">
        <route edges="edge-west-WE edge-east-WE"/>
    </vehicle>
    <vehicle id="-flow-route-edge-east-EW_0_10-edge-west-EW_0_-10-956821211987512037-3385449679720864173-1-0.39" type="actor-car-5593658941861698374" depart="58.50" departLane="0" departPos="10.00" departSpeed="max" arrivalLane="0" arrivalPos="-10.00">
        <route edges="edge-east-EW edge-west-EW"/>
    </vehicle>
    <vehicle id="-flow-route-edge-west-WE_0_10-edge-east-WE_0_-10-5211447971676164136-3385449679720864173-0-0.39" type="actor-car-5593658941861698374" depart="58.50" departLane="0" departPos="10.00" departSpeed="max" arrivalLane="0" arrivalPos="-10.00">
        <route edges="edge-west-WE edge-east-WE"/>
    </vehicle>
    <vehicle id="-flow-route-edge-east-EW_0_10-edge-west-EW_0_-10-956821211987512037-3385449679720864173-1-0.40" type="actor-car-5593658941861698374" depart="60.00" departLane="0" departPos="10.00" departSpeed="max" arrivalLane="0" arrivalPos="-10.00">
        <route edges="edge-east-EW edge-west-EW"/>
    </vehicle>
    <vehicle id="-flow-route-edge-west-WE_0_10-edge-east-WE_0_-10-5211447971676164136-3385449679720864173-0-0.40" type="actor-car-5593658941861698374" depart="60.00" departLane="0" departPos="10.00" departSpeed="max" arrivalLane="0" arrivalPos="-10.00">
        <route edges="edge-west-WE edge-east-WE"/>
    </vehicle>
    <vehicle id="-flow-route-edge-east-EW_0_10-edge-west-EW_0_-10-956821211987512037-3385449679720864173-1-0.41" type="actor-car-5593658941861698374" depart="61.50" departLane="0" departPos="10.00" departSpeed="max" arrivalLane="0" arrivalPos="-10.00">
        <route edges="edge-east-EW edge-west-EW"/>
    </vehicle>
    <vehicle id="-flow-route-edge-west-WE_0_10-edge-east-WE_0_-10-5211447971676164136-3385449679720864173-0-0.41" type="actor-car-5593658941861698374" depart="61.50" departLane="0" departPos="10.00" departSpeed="max" arrivalLane="0" arrivalPos="-10.00">
        <route edges="edge-west-WE edge-east-WE"/>
    </vehicle>
    <vehicle id="-flow-route-edge-east-EW_0_10-edge-west-EW_0_-10-956821211987512037-3385449679720864173-1-0.42" type="actor-car-5593658941861698374" depart="63.00" departLane="0" departPos="10.00" departSpeed="max" arrivalLane="0" arrivalPos="-10.00">
        <route edges="edge-east-EW edge-west-EW"/>
    </vehicle>
    <vehicle id="-flow-route-edge-west-WE_0_10-edge-east-WE_0_-10-5211447971676164136-3385449679720864173-0-0.42" type="actor-car-5593658941861698374" depart="63.00" departLane="0" departPos="10.00" departSpeed="max" arrivalLane="0" arrivalPos="-10.00">
        <route edges="edge-west-WE edge-east-WE"/>
    </vehicle>
    <vehicle id="-flow-route-edge-east-EW_0_10-edge-west-EW_0_-10-956821211987512037-3385449679720864173-1-0.43" type="actor-car-5593658941861698374" depart="64.50" departLane="0" departPos="10.00" departSpeed="max" arrivalLane="0" arrivalPos="-10.00">
        <route edges="edge-east-EW edge-west-EW"/>
    </vehicle>
    <vehicle id="-flow-route-edge-west-WE_0_10-edge-east-WE_0_-10-5211447971676164136-3385449679720864173-0-0.43" type="actor-car-5593658941861698374" depart="64.50" departLane="0" departPos="10.00" departSpeed="max" arrivalLane="0" arrivalPos="-10.00">
        <route edges="edge-west-WE edge-east-WE"/>
    </vehicle>
    <vehicle id="-flow-route-edge-east-EW_0_10-edge-west-EW_0_-10-956821211987512037-3385449679720864173-1-0.44" type="actor-car-5593658941861698374" depart="66.00" departLane="0" departPos="10.00" departSpeed="max" arrivalLane="0" arrivalPos="-10.00">
        <route edges="edge-east-EW edge-west-EW"/>
    </vehicle>