<?xml version="1.0" encoding="UTF-8"?>

<<<<<<< HEAD
<!-- generated on 2021-06-07 14:57:01 by Eclipse SUMO duarouter Version 1.9.2
=======
<!-- generated on 2021-05-17 20:40:54 by Eclipse SUMO duarouter Version 1.9.1
>>>>>>> f1cbdea80b74be8e93abea99fff8f31e15544f09
<configuration xmlns:xsi="http://www.w3.org/2001/XMLSchema-instance" xsi:noNamespaceSchemaLocation="http://sumo.dlr.de/xsd/duarouterConfiguration.xsd">

    <input>
        <net-file value="/home/liyi/multi/SMARTS_Track-2-master/dataset_public/crossroads/2lane/map.net.xml"/>
<<<<<<< HEAD
        <route-files value="/tmp/tmpzlcbp0ba/trips.trips.xml"/>
=======
        <route-files value="/tmp/tmpkagtcdf8/trips.trips.xml"/>
>>>>>>> f1cbdea80b74be8e93abea99fff8f31e15544f09
    </input>

    <output>
        <output-file value="/home/liyi/multi/SMARTS_Track-2-master/dataset_public/crossroads/2lane/traffic/all.rou.xml"/>
        <alternatives-output value="/home/liyi/multi/SMARTS_Track-2-master/dataset_public/crossroads/2lane/traffic/all.rou.alt.xml"/>
    </output>

    <processing>
        <unsorted-input value="true"/>
        <repair value="true"/>
    </processing>

    <report>
        <error-log value="/tmp/smarts/_duarouter_routing/traffic/all.log"/>
        <no-step-log value="true"/>
    </report>

    <random_number>
        <seed value="42"/>
    </random_number>

</configuration>
-->

<routes xmlns:xsi="http://www.w3.org/2001/XMLSchema-instance" xsi:noNamespaceSchemaLocation="http://sumo.dlr.de/xsd/routes_file.xsd">
<<<<<<< HEAD
    <vType id="actor-car--2129179021144655057" minGap="2.50" speedFactor="normc(0.50,0.20,0.20,2.00)" vClass="passenger" impatience="0.50" lcCooperative="0.75" lcImpatience="0" jmDriveAfterYellowTime="1.0" accel="2.6" decel="4.5" sigma="0.5"/>
    <vehicle id="-flow-route-edge-east-EW_0_random-edge-north-SN_0_random--297583356968411739-811027702962135029-11-0.0" type="actor-car--2129179021144655057" depart="0.00" departLane="0" departPos="random" departSpeed="max" arrivalLane="0" arrivalPos="random">
        <route edges="edge-east-EW edge-north-SN"/>
    </vehicle>
    <vehicle id="-flow-route-edge-east-EW_0_random-edge-south-NS_0_random-2127730427468514838-811027702962135029-7-0.0" type="actor-car--2129179021144655057" depart="0.00" departLane="0" departPos="random" departSpeed="max" arrivalLane="0" arrivalPos="random">
        <route edges="edge-east-EW edge-south-NS"/>
    </vehicle>
    <vehicle id="-flow-route-edge-east-EW_0_random-edge-west-EW_0_random--3704514922039140466-811027702962135029-3-0.0" type="actor-car--2129179021144655057" depart="0.00" departLane="0" departPos="random" departSpeed="max" arrivalLane="0" arrivalPos="random">
        <route edges="edge-east-EW edge-west-EW"/>
    </vehicle>
    <vehicle id="-flow-route-edge-north-NS_0_random-edge-east-WE_0_random--3941083404204674054-811027702962135029-6-0.0" type="actor-car--2129179021144655057" depart="0.00" departLane="0" departPos="random" departSpeed="max" arrivalLane="0" arrivalPos="random">
        <route edges="edge-north-NS edge-east-WE"/>
    </vehicle>
    <vehicle id="-flow-route-edge-north-NS_0_random-edge-south-NS_0_random--6276312873323622064-811027702962135029-0-0.0" type="actor-car--2129179021144655057" depart="0.00" departLane="0" departPos="random" departSpeed="max" arrivalLane="0" arrivalPos="random">
        <route edges="edge-north-NS edge-south-NS"/>
    </vehicle>
    <vehicle id="-flow-route-edge-north-NS_0_random-edge-west-EW_0_random-470388001914987880-811027702962135029-10-0.0" type="actor-car--2129179021144655057" depart="0.00" departLane="0" departPos="random" departSpeed="max" arrivalLane="0" arrivalPos="random">
        <route edges="edge-north-NS edge-west-EW"/>
    </vehicle>
    <vehicle id="-flow-route-edge-south-SN_0_random-edge-east-WE_0_random--6525928868176466418-811027702962135029-8-0.0" type="actor-car--2129179021144655057" depart="0.00" departLane="0" departPos="random" departSpeed="max" arrivalLane="0" arrivalPos="random">
        <route edges="edge-south-SN edge-east-WE"/>
    </vehicle>
    <vehicle id="-flow-route-edge-south-SN_0_random-edge-north-SN_0_random-3198501733523483831-811027702962135029-1-0.0" type="actor-car--2129179021144655057" depart="0.00" departLane="0" departPos="random" departSpeed="max" arrivalLane="0" arrivalPos="random">
        <route edges="edge-south-SN edge-north-SN"/>
    </vehicle>
    <vehicle id="-flow-route-edge-south-SN_0_random-edge-west-EW_0_random-3425002494167998260-811027702962135029-4-0.0" type="actor-car--2129179021144655057" depart="0.00" departLane="0" departPos="random" departSpeed="max" arrivalLane="0" arrivalPos="random">
        <route edges="edge-south-SN edge-west-EW"/>
    </vehicle>
    <vehicle id="-flow-route-edge-west-WE_0_random-edge-east-WE_0_random-8061499665954058783-811027702962135029-2-0.0" type="actor-car--2129179021144655057" depart="0.00" departLane="0" departPos="random" departSpeed="max" arrivalLane="0" arrivalPos="random">
        <route edges="edge-west-WE edge-east-WE"/>
    </vehicle>
    <vehicle id="-flow-route-edge-west-WE_0_random-edge-north-SN_0_random--1532033264493878650-811027702962135029-5-0.0" type="actor-car--2129179021144655057" depart="0.00" departLane="0" departPos="random" departSpeed="max" arrivalLane="0" arrivalPos="random">
        <route edges="edge-west-WE edge-north-SN"/>
    </vehicle>
    <vehicle id="-flow-route-edge-west-WE_0_random-edge-south-NS_0_random--6554994552839198987-811027702962135029-9-0.0" type="actor-car--2129179021144655057" depart="0.00" departLane="0" departPos="random" departSpeed="max" arrivalLane="0" arrivalPos="random">
=======
    <vType id="actor-car--2072516367413150662" minGap="2.50" speedFactor="normc(0.50,0.20,0.20,2.00)" vClass="passenger" impatience="0.50" lcCooperative="0.5" lcImpatience="0" jmDriveAfterYellowTime="1.0" accel="2.6" decel="4.5" sigma="0.5"/>
    <vehicle id="-flow-route-edge-east-EW_0_random-edge-north-SN_0_random--4574594028682632202--1982645126249367689-11-0.0" type="actor-car--2072516367413150662" depart="0.00" departLane="0" departPos="random" departSpeed="max" arrivalLane="0" arrivalPos="random">
        <route edges="edge-east-EW edge-north-SN"/>
    </vehicle>
    <vehicle id="-flow-route-edge-east-EW_0_random-edge-south-NS_0_random--5509739086240972160--1982645126249367689-7-0.0" type="actor-car--2072516367413150662" depart="0.00" departLane="0" departPos="random" departSpeed="max" arrivalLane="0" arrivalPos="random">
        <route edges="edge-east-EW edge-south-NS"/>
    </vehicle>
    <vehicle id="-flow-route-edge-east-EW_0_random-edge-west-EW_0_random--7788016459278355722--1982645126249367689-3-0.0" type="actor-car--2072516367413150662" depart="0.00" departLane="0" departPos="random" departSpeed="max" arrivalLane="0" arrivalPos="random">
        <route edges="edge-east-EW edge-west-EW"/>
    </vehicle>
    <vehicle id="-flow-route-edge-north-NS_0_random-edge-east-WE_0_random--2799971323386927166--1982645126249367689-6-0.0" type="actor-car--2072516367413150662" depart="0.00" departLane="0" departPos="random" departSpeed="max" arrivalLane="0" arrivalPos="random">
        <route edges="edge-north-NS edge-east-WE"/>
    </vehicle>
    <vehicle id="-flow-route-edge-north-NS_0_random-edge-south-NS_0_random--264652824540981814--1982645126249367689-0-0.0" type="actor-car--2072516367413150662" depart="0.00" departLane="0" departPos="random" departSpeed="max" arrivalLane="0" arrivalPos="random">
        <route edges="edge-north-NS edge-south-NS"/>
    </vehicle>
    <vehicle id="-flow-route-edge-north-NS_0_random-edge-west-EW_0_random-5016788584724314164--1982645126249367689-10-0.0" type="actor-car--2072516367413150662" depart="0.00" departLane="0" departPos="random" departSpeed="max" arrivalLane="0" arrivalPos="random">
        <route edges="edge-north-NS edge-west-EW"/>
    </vehicle>
    <vehicle id="-flow-route-edge-south-SN_0_random-edge-east-WE_0_random-7818133003478657180--1982645126249367689-8-0.0" type="actor-car--2072516367413150662" depart="0.00" departLane="0" departPos="random" departSpeed="max" arrivalLane="0" arrivalPos="random">
        <route edges="edge-south-SN edge-east-WE"/>
    </vehicle>
    <vehicle id="-flow-route-edge-south-SN_0_random-edge-north-SN_0_random-5934388064384023386--1982645126249367689-1-0.0" type="actor-car--2072516367413150662" depart="0.00" departLane="0" departPos="random" departSpeed="max" arrivalLane="0" arrivalPos="random">
        <route edges="edge-south-SN edge-north-SN"/>
    </vehicle>
    <vehicle id="-flow-route-edge-south-SN_0_random-edge-west-EW_0_random--4539148718918658470--1982645126249367689-4-0.0" type="actor-car--2072516367413150662" depart="0.00" departLane="0" departPos="random" departSpeed="max" arrivalLane="0" arrivalPos="random">
        <route edges="edge-south-SN edge-west-EW"/>
    </vehicle>
    <vehicle id="-flow-route-edge-west-WE_0_random-edge-east-WE_0_random--5689200257613761055--1982645126249367689-2-0.0" type="actor-car--2072516367413150662" depart="0.00" departLane="0" departPos="random" departSpeed="max" arrivalLane="0" arrivalPos="random">
        <route edges="edge-west-WE edge-east-WE"/>
    </vehicle>
    <vehicle id="-flow-route-edge-west-WE_0_random-edge-north-SN_0_random-1286896356622813255--1982645126249367689-5-0.0" type="actor-car--2072516367413150662" depart="0.00" departLane="0" departPos="random" departSpeed="max" arrivalLane="0" arrivalPos="random">
        <route edges="edge-west-WE edge-north-SN"/>
    </vehicle>
    <vehicle id="-flow-route-edge-west-WE_0_random-edge-south-NS_0_random-7381736225579798137--1982645126249367689-9-0.0" type="actor-car--2072516367413150662" depart="0.00" departLane="0" departPos="random" departSpeed="max" arrivalLane="0" arrivalPos="random">
>>>>>>> f1cbdea80b74be8e93abea99fff8f31e15544f09
        <route edges="edge-west-WE edge-south-NS"/>
    </vehicle>
</routes>
