<?xml version="1.0" encoding="UTF-8"?>

<<<<<<< HEAD
<!-- generated on 2021-06-07 14:57:01 by Eclipse SUMO duarouter Version 1.9.2
=======
<!-- generated on 2021-05-17 20:40:53 by Eclipse SUMO duarouter Version 1.9.1
>>>>>>> f1cbdea80b74be8e93abea99fff8f31e15544f09
<configuration xmlns:xsi="http://www.w3.org/2001/XMLSchema-instance" xsi:noNamespaceSchemaLocation="http://sumo.dlr.de/xsd/duarouterConfiguration.xsd">

    <input>
        <net-file value="/home/liyi/multi/SMARTS_Track-2-master/dataset_public/crossroads/2lane/map.net.xml"/>
<<<<<<< HEAD
        <route-files value="/tmp/tmpjhw29ogp/trips.trips.xml"/>
=======
        <route-files value="/tmp/tmpeenkc0fw/trips.trips.xml"/>
>>>>>>> f1cbdea80b74be8e93abea99fff8f31e15544f09
    </input>

    <output>
        <output-file value="/home/liyi/multi/SMARTS_Track-2-master/dataset_public/crossroads/2lane/traffic/vertical.rou.xml"/>
        <alternatives-output value="/home/liyi/multi/SMARTS_Track-2-master/dataset_public/crossroads/2lane/traffic/vertical.rou.alt.xml"/>
    </output>

    <processing>
        <unsorted-input value="true"/>
        <repair value="true"/>
    </processing>

    <report>
        <error-log value="/tmp/smarts/_duarouter_routing/traffic/vertical.log"/>
        <no-step-log value="true"/>
    </report>

    <random_number>
        <seed value="42"/>
    </random_number>

</configuration>
-->

<routes xmlns:xsi="http://www.w3.org/2001/XMLSchema-instance" xsi:noNamespaceSchemaLocation="http://sumo.dlr.de/xsd/routes_file.xsd">
<<<<<<< HEAD
    <vType id="actor-car--2129179021144655057" minGap="2.50" speedFactor="normc(0.50,0.20,0.20,2.00)" vClass="passenger" impatience="0.50" lcCooperative="0.75" lcImpatience="0" jmDriveAfterYellowTime="1.0" accel="2.6" decel="4.5" sigma="0.5"/>
    <vehicle id="-flow-route-edge-north-NS_0_random-edge-south-NS_0_random--6276312873323622064-811027702962135029-0-0.0" type="actor-car--2129179021144655057" depart="0.00" departLane="0" departPos="random" departSpeed="max" arrivalLane="0" arrivalPos="random">
        <route edges="edge-north-NS edge-south-NS"/>
    </vehicle>
    <vehicle id="-flow-route-edge-south-SN_0_random-edge-north-SN_0_random-3198501733523483831-811027702962135029-1-0.0" type="actor-car--2129179021144655057" depart="0.00" departLane="0" departPos="random" departSpeed="max" arrivalLane="0" arrivalPos="random">
=======
    <vType id="actor-car--2072516367413150662" minGap="2.50" speedFactor="normc(0.50,0.20,0.20,2.00)" vClass="passenger" impatience="0.50" lcCooperative="0.5" lcImpatience="0" jmDriveAfterYellowTime="1.0" accel="2.6" decel="4.5" sigma="0.5"/>
    <vehicle id="-flow-route-edge-north-NS_0_random-edge-south-NS_0_random--264652824540981814--1982645126249367689-0-0.0" type="actor-car--2072516367413150662" depart="0.00" departLane="0" departPos="random" departSpeed="max" arrivalLane="0" arrivalPos="random">
        <route edges="edge-north-NS edge-south-NS"/>
    </vehicle>
    <vehicle id="-flow-route-edge-south-SN_0_random-edge-north-SN_0_random-5934388064384023386--1982645126249367689-1-0.0" type="actor-car--2072516367413150662" depart="0.00" departLane="0" departPos="random" departSpeed="max" arrivalLane="0" arrivalPos="random">
>>>>>>> f1cbdea80b74be8e93abea99fff8f31e15544f09
        <route edges="edge-south-SN edge-north-SN"/>
    </vehicle>
</routes>
