<?xml version="1.0" encoding="UTF-8"?>

<<<<<<< HEAD
<!-- generated on 2021-06-07 14:57:01 by Eclipse SUMO duarouter Version 1.9.2
=======
<!-- generated on 2021-05-17 18:56:15 by Eclipse SUMO duarouter Version 1.9.1
>>>>>>> f1cbdea80b74be8e93abea99fff8f31e15544f09
<configuration xmlns:xsi="http://www.w3.org/2001/XMLSchema-instance" xsi:noNamespaceSchemaLocation="http://sumo.dlr.de/xsd/duarouterConfiguration.xsd">

    <input>
        <net-file value="/home/liyi/multi/SMARTS_Track-2-master/dataset_public/crossroads/4lane/map.net.xml"/>
<<<<<<< HEAD
        <route-files value="/tmp/tmpxqxap5u1/trips.trips.xml"/>
=======
        <route-files value="/tmp/tmpnb9ytz39/trips.trips.xml"/>
>>>>>>> f1cbdea80b74be8e93abea99fff8f31e15544f09
    </input>

    <output>
        <output-file value="/home/liyi/multi/SMARTS_Track-2-master/dataset_public/crossroads/4lane/traffic/horizontal.rou.xml"/>
        <alternatives-output value="/home/liyi/multi/SMARTS_Track-2-master/dataset_public/crossroads/4lane/traffic/horizontal.rou.alt.xml"/>
    </output>

    <processing>
        <unsorted-input value="true"/>
        <repair value="true"/>
    </processing>

    <report>
        <error-log value="/tmp/smarts/_duarouter_routing/traffic/horizontal.log"/>
        <no-step-log value="true"/>
    </report>

    <random_number>
        <seed value="42"/>
    </random_number>

</configuration>
-->

<routes xmlns:xsi="http://www.w3.org/2001/XMLSchema-instance" xsi:noNamespaceSchemaLocation="http://sumo.dlr.de/xsd/routes_file.xsd">
<<<<<<< HEAD
    <vType id="actor-car-1933475895108161077" minGap="2.50" speedFactor="normc(0.50,0.20,0.20,2.00)" vClass="passenger" impatience="0.50" lcCooperative="0.5" lcImpatience="0" jmDriveAfterYellowTime="1.0" accel="2.6" decel="4.5" sigma="0.5"/>
    <vehicle id="-flow-route-edge-east-EW_0_random-edge-west-EW_0_random-1820240504849248551--1168830525221268945-1-0.0" type="actor-car-1933475895108161077" depart="0.00" departLane="0" departPos="random" departSpeed="max" arrivalLane="0" arrivalPos="random">
        <route edges="edge-east-EW edge-west-EW"/>
    </vehicle>
    <vehicle id="-flow-route-edge-west-WE_0_random-edge-east-WE_0_random--7489121095923214513--1168830525221268945-0-0.0" type="actor-car-1933475895108161077" depart="0.00" departLane="0" departPos="random" departSpeed="max" arrivalLane="0" arrivalPos="random">
=======
    <vType id="actor-car--8686191539192511789" minGap="2.50" speedFactor="normc(0.50,0.20,0.20,2.00)" vClass="passenger" impatience="0.50" lcCooperative="0.5" lcImpatience="0" jmDriveAfterYellowTime="1.0" accel="2.6" decel="4.5" sigma="0.5"/>
    <vehicle id="-flow-route-edge-east-EW_0_random-edge-west-EW_0_random--8797305541085746314-4109575965658642257-1-0.0" type="actor-car--8686191539192511789" depart="0.00" departLane="0" departPos="random" departSpeed="max" arrivalLane="0" arrivalPos="random">
        <route edges="edge-east-EW edge-west-EW"/>
    </vehicle>
    <vehicle id="-flow-route-edge-west-WE_0_random-edge-east-WE_0_random-8073372101868560512-4109575965658642257-0-0.0" type="actor-car--8686191539192511789" depart="0.00" departLane="0" departPos="random" departSpeed="max" arrivalLane="0" arrivalPos="random">
>>>>>>> f1cbdea80b74be8e93abea99fff8f31e15544f09
        <route edges="edge-west-WE edge-east-WE"/>
    </vehicle>
</routes>
