<?xml version="1.0" encoding="UTF-8"?>

<<<<<<< HEAD
<!-- generated on 2021-06-07 14:57:01 by Eclipse SUMO duarouter Version 1.9.2
=======
<!-- generated on 2021-05-17 18:56:15 by Eclipse SUMO duarouter Version 1.9.1
>>>>>>> f1cbdea80b74be8e93abea99fff8f31e15544f09
<configuration xmlns:xsi="http://www.w3.org/2001/XMLSchema-instance" xsi:noNamespaceSchemaLocation="http://sumo.dlr.de/xsd/duarouterConfiguration.xsd">

    <input>
        <net-file value="/home/liyi/multi/SMARTS_Track-2-master/dataset_public/crossroads/4lane/map.net.xml"/>
<<<<<<< HEAD
        <route-files value="/tmp/tmp0h33lthk/trips.trips.xml"/>
=======
        <route-files value="/tmp/tmps4acvwdx/trips.trips.xml"/>
>>>>>>> f1cbdea80b74be8e93abea99fff8f31e15544f09
    </input>

    <output>
        <output-file value="/home/liyi/multi/SMARTS_Track-2-master/dataset_public/crossroads/4lane/traffic/vertical.rou.xml"/>
        <alternatives-output value="/home/liyi/multi/SMARTS_Track-2-master/dataset_public/crossroads/4lane/traffic/vertical.rou.alt.xml"/>
    </output>

    <processing>
        <unsorted-input value="true"/>
        <repair value="true"/>
    </processing>

    <report>
        <error-log value="/tmp/smarts/_duarouter_routing/traffic/vertical.log"/>
        <no-step-log value="true"/>
    </report>

    <random_number>
        <seed value="42"/>
    </random_number>

</configuration>
-->

<routes xmlns:xsi="http://www.w3.org/2001/XMLSchema-instance" xsi:noNamespaceSchemaLocation="http://sumo.dlr.de/xsd/routes_file.xsd">
<<<<<<< HEAD
    <vType id="actor-car-1933475895108161077" minGap="2.50" speedFactor="normc(0.50,0.20,0.20,2.00)" vClass="passenger" impatience="0.50" lcCooperative="0.5" lcImpatience="0" jmDriveAfterYellowTime="1.0" accel="2.6" decel="4.5" sigma="0.5"/>
    <vehicle id="-flow-route-edge-north-NS_0_random-edge-south-NS_0_random--4639679466865285476--1168830525221268945-0-0.0" type="actor-car-1933475895108161077" depart="0.00" departLane="0" departPos="random" departSpeed="max" arrivalLane="0" arrivalPos="random">
        <route edges="edge-north-NS edge-south-NS"/>
    </vehicle>
    <vehicle id="-flow-route-edge-south-SN_0_random-edge-north-SN_0_random-3452315330754357509--1168830525221268945-1-0.0" type="actor-car-1933475895108161077" depart="0.00" departLane="0" departPos="random" departSpeed="max" arrivalLane="0" arrivalPos="random">
=======
    <vType id="actor-car--8686191539192511789" minGap="2.50" speedFactor="normc(0.50,0.20,0.20,2.00)" vClass="passenger" impatience="0.50" lcCooperative="0.5" lcImpatience="0" jmDriveAfterYellowTime="1.0" accel="2.6" decel="4.5" sigma="0.5"/>
    <vehicle id="-flow-route-edge-north-NS_0_random-edge-south-NS_0_random--1173896066411633716-4109575965658642257-0-0.0" type="actor-car--8686191539192511789" depart="0.00" departLane="0" departPos="random" departSpeed="max" arrivalLane="0" arrivalPos="random">
        <route edges="edge-north-NS edge-south-NS"/>
    </vehicle>
    <vehicle id="-flow-route-edge-south-SN_0_random-edge-north-SN_0_random-2505943537558801232-4109575965658642257-1-0.0" type="actor-car--8686191539192511789" depart="0.00" departLane="0" departPos="random" departSpeed="max" arrivalLane="0" arrivalPos="random">
>>>>>>> f1cbdea80b74be8e93abea99fff8f31e15544f09
        <route edges="edge-south-SN edge-north-SN"/>
    </vehicle>
</routes>
